LTspice 24.1.0 for Windows
Circuit: C:\Users\Gpc\Documents\GitHub\Proyecto_Final_DOME\PCB\Simulacion\Proteccion contra sobre tension\Draft1.net
Start Time: Fri May  2 20:15:47 2025
solver = Normal
Maximum thread count: 12
tnom = 27
temp = 27
method = trap
.OP point found by inspection.
Warning: Simulation tolerance relaxed to achieve convergence from 4.2350308856987702e-06 
Convergence Failure:  Time step too small; time = 4.23503e-06, timestep = 1.25e-19: trouble with instance "Q1"

Simulation Failed: Iteration limit reached

Total elapsed time: 0.051 seconds.

Files loaded:
C:\Users\Gpc\Documents\GitHub\Proyecto_Final_DOME\PCB\Simulacion\Proteccion contra sobre tension\Draft1.net
C:\Users\Gpc\AppData\Local\LTspice\lib\cmp\standard.bjt

