LTspice 24.1.0 for Windows
Circuit: C:\Users\Gpc\Documents\GitHub\Proyecto_Final_DOME\PCB\Simulacion\Proteccion contra sobre tension\Draft3.net
Start Time: Sun Mar 30 11:54:58 2025
solver = Normal
Maximum thread count: 12
tnom = 27
temp = 27
method = trap
Direct Newton iteration for .op point succeeded.
Total elapsed time: 0.152 seconds.

Files loaded:
C:\Users\Gpc\Documents\GitHub\Proyecto_Final_DOME\PCB\Simulacion\Proteccion contra sobre tension\Draft3.net
C:\Users\Gpc\AppData\Local\LTspice\lib\cmp\standard.dio
C:\Users\Gpc\AppData\Local\LTspice\lib\cmp\standard.bjt
C:\Users\Gpc\AppData\Local\LTspice\lib\cmp\standard.mos

